*Heading
** Job name: Job-2 Model name: Model-1
** Generated by: Abaqus/CAE 2020
*Preprint, echo=NO, model=NO, history=NO, contact=NO
**
** PARTS
**
*Part, name=TiltBoom
*Node
      1, -0.0775000006,           0., 0.0954999998
      2, -0.0578264035,  0.131172195, 0.0954999998
      3, -0.0578264035,  0.131172195, 0.0804999992
      4, -0.0775000006,           0., 0.0804999992
      5, -0.00749999983, -0.0700000003, 0.0954999998
      6, -0.00749999983, -0.0700000003, 0.0804999992
      7,           0., -0.0700000003, 0.0954999998
      8,           0., -0.0700000003, 0.0804999992
      9,  0.051944226, -0.0469233133, 0.0954999998
     10,  0.051944226, -0.0469233133, 0.0804999992
     11, 0.0480000004,           0., 0.0954999998
     12, 0.0480000004,           0., 0.0804999992
     13,  0.212825075,  0.131172195, 0.0804999992
     14,  0.212825075,  0.131172195, 0.0954999998
     15, -0.0566523671,  0.143672198,  0.092150636
     16, -0.0566523671,  0.136172205, 0.0791602507
     17,  0.219896242,  0.136172205, 0.0791602507
     18,  0.219896242,  0.143672198,  0.092150636
     19, -0.0554424487,  0.150658458, 0.0881171152
     20, -0.0554424487,  0.143158466, 0.0751267374
** ... 2496 like lines cut
*Element, type=C3D4
   1,   62,   70, 2418, 2419
   2, 2419,  752,  367, 2408
   3, 2419,  752,   35,  250
   4,  367,  294,  343, 2420
   5, 2420,  250,  367,  294
   6,  235,  279, 2421,  228
   7, 2422,  260, 2423,  280
   8,  279, 2422,  228,  235
   9, 2422, 2423,  236,  280
  10,  127,  110, 1156, 2424
  11,  979, 1153, 1987,  980
  12, 2290, 2425,   85, 1426
  13, 2426, 1156,  110,  977
  14,  415, 1425, 1426, 1070
  15,  146,  188, 2374,  184
  16,  444, 1454, 2427, 1453
  17,  808,  437, 2428, 1867
  18, 2424, 1156, 1984,  110
  19, 2411, 1823, 1491, 1824
  20,  644, 1982, 2429, 1939
** ... 7516 like lines cut
*Nset, nset=Set-1, generate
    1,  2516,     1
*Elset, elset=Set-1, generate
    1,  7536,     1
** Section: Section-1
*Solid Section, elset=Set-1, material=Steel
,
*End Instance
**  
*End Assembly
** 
** MATERIALS
** 
*Material, name=Steel
*Density
7850.,
*Elastic
 2.1e+11, 0.3
** ----------------------------------------------------------------
** 
** STEP: Step-1
** 
*Step, name=Step-1, nlgeom=NO, perturbation
*Frequency, eigensolver=Lanczos, sim, acoustic coupling=on, normalization=mass
10, , , , , 
** 
** OUTPUT REQUESTS
** 
*Restart, write, frequency=0
** 
** FIELD OUTPUT: F-Output-1
** 
*Output, field, variable=PRESELECT
*End Step
** ----------------------------------------------------------------
** 
** 
** STEP: Matrix gen
*Step, name=matrix-step
*Matrix generate, stiffness, mass
*Matrix output, stiffness, mass, format=coordinate
*End Step
